%nproc=1
%chk=ts-opt-freq.chk
#p external="python3 -u ../../src/reaxff_chon2017.py" freq=num

Title Card Required

0 1
 C      -1.16732800      0.06337200      0.00239500
 H      -0.59796300      1.36491500      0.03540800
 N       0.00931800      0.13458600      0.00420100


--link1--
%nproc=1
%chk=ts-opt-freq.chk
#p external="python3 -u ../../src/reaxff_chon2017.py" opt=(ts,rcfc,noeigen,nomicro) geom=allcheck




--link1--
%nproc=1
%chk=ts-opt-freq.chk
#p external="python3 -u ../../src/reaxff_chon2017.py" freq=num geom=allcheck


